*SUBCIRCUIT INVERSOR COMANDAT 
           * I C Cn O Vdd
.subckt INVC 1 2 3 4 5
MN1 4 2 7 0 NMOS L=0.5U W=1U
MN2 7 1 0 0 NMOS L=0.5U W=1U

MP1 6 1 5 5 PMOS L=0.5U W=4.28U
MP2 4 3 6 5 PMOS L=0.5U W=4.28U
.ends 
