*SUBCIRCUIT INVERSOR
*           I O Vdd
.subckt INV 1 2 3
MN1 2 1 0 0 NMOS L=0.5U W=1U
*   D G S Substr
MP1 2 1 3 3 PMOS L=0.5U W=4.28U
.ends
