*SUBCIRCUIT NAND2
            * I I O Vdd
.subckt NAND2 1 2 4 5
MN1 4 1 3 0 NMOS L=0.5U W=1U
MN2 3 2 0 0 NMOS L=0.5U W=1U

MP1 4 1 5 5 PMOS L=0.5U W=2.14U
MP2 4 2 5 5 PMOS L=0.5U W=2.14U
.ends
