*SUBCIRCUIT NOR3
           * I I I O Vdd
.subckt NOR3 1 2 3 5 4
MN1 5 1 0 0 NMOS L=0.5U W=1U
MN2 5 2 0 0 NMOS L=0.5U W=1U
MN3 5 3 0 0 NMOS L=0.5U W=1U

MP1 7 1 4 4 PMOS L=0.5U W=12.86U
MP2 6 2 7 4 PMOS L=0.5U W=12.86U
MP3 5 3 6 4 PMOS L=0.5U W=12.86U
.ends
